Circuit: * C:\Users\bnorton\kill_cone\brass_board\PCB\main_board\spice\lowpass.asc

Direct Newton iteration for .op point succeeded.

Date: Thu May 19 05:31:54 2022
Total elapsed time: 2.815 seconds.

tnom = 27
temp = 27
method = modified trap
totiter = 229605
traniter = 229580
tranpoints = 114791
accept = 79662
rejected = 35129
matrix size = 31
fillins = 30
solver = Normal
Thread vector: 14.7/5.9[3] 2.7/1.9[3] 1.9/1.3[3] 0.2/0.5[1]  2592/500
Matrix Compiler1: 3.36 KB object code size  0.8/0.4/[0.3]
Matrix Compiler2: 4.07 KB object code size  0.4/0.4/[0.3]

