Circuit: * C:\Users\bnorton\kill_cone\brass_board\PCB\main_board\spice\Diff_in_test.asc

Direct Newton iteration for .op point succeeded.

Date: Mon May 02 17:04:51 2022
Total elapsed time: 0.114 seconds.

tnom = 27
temp = 27
method = modified trap
totiter = 2105
traniter = 2088
tranpoints = 1045
accept = 1045
rejected = 0
matrix size = 40
fillins = 59
solver = Normal
Thread vector: 20.3/11.0[5] 4.5/2.7[5] 3.3/2.5[5] 0.3/0.4[1]  2592/500
Matrix Compiler1: 5.59 KB object code size  1.3/0.7/[0.4]
Matrix Compiler2: 5.92 KB object code size  0.7/0.8/[0.4]

