Circuit: * C:\Users\bnorton\kill_cone\brass_board\PCB\main_board\spice\LED_checks.asc

Limiting rise time of source v1 to 3e-005
Limiting fall time of source v1 to 3e-005
WARNING: Node N005 is floating.

Direct Newton iteration for .op point succeeded.

Date: Sun May 22 03:00:24 2022
Total elapsed time: 0.073 seconds.

tnom = 27
temp = 27
method = modified trap
totiter = 24363
traniter = 24360
tranpoints = 7343
accept = 6071
rejected = 1272
matrix size = 7
fillins = 0
solver = Normal
Matrix Compiler1: 196 bytes object code size  0.1/0.1/[0.1]
Matrix Compiler2: off  [0.1]/0.1/0.1

