Circuit: * C:\Users\bnorton\kill_cone\brass_board\PCB\main_board\spice\LED_checks.asc

Limiting rise time of source v1 to 3e-005
Limiting fall time of source v1 to 3e-005
WARNING: Node N005 is floating.

Direct Newton iteration for .op point succeeded.

Date: Thu Jun 23 01:26:37 2022
Total elapsed time: 0.149 seconds.

tnom = 27
temp = 27
method = modified trap
totiter = 24362
traniter = 24359
tranpoints = 7343
accept = 6071
rejected = 1272
matrix size = 7
fillins = 0
solver = Normal
Matrix Compiler1:      12 opcodes  0.1/[0.0]/0.0
Matrix Compiler2: off  [0.0]/0.1/0.1

